CM Start angle A1 = 0
CM Stop angle A2 = 360
CM Radial sections = 6
CM Circular sections = 3
CM Rotate X, Y, Z = 0, 0, 0
CM Move X, Y, Z = 0, 0, 0
CE
GW	1	3	0	0	9.05511811	3.2228773	0	9.05511811	0.11105315
GW	2	3	3.2228773	0	9.05511811	6.44685039	0	9.05511811	0.22210958
GW	3	3	6.44685039	0	9.05511811	9.66863517	0	9.05511811	0.27763451
GW	4	3	0	0	9.05511811	1.61144029	2.7910958	9.05511811	0.11105315
GW	5	3	1.6114403	2.7910958	9.055118	3.2228773	5.5807087	9.055118	0.2221096
GW	6	3	3.2228773	5.5807087	9.055118	4.835958	8.3727034	9.055118	0.2776345
GW	7	3	0	0	9.05511811	-1.6114403	2.7910958	9.05511811	0.11105315
GW	8	3	-1.61144	2.7910958	9.055118	-3.222877	5.5807087	9.055118	0.2221096
GW	9	3	-3.222877	5.5807087	9.055118	-4.835958	8.3727034	9.055118	0.2776345
GW	10	3	0	0	9.05511811	-3.2228773	0	9.05511811	0.11105315
GW	11	3	-3.2228773	0	9.05511811	-6.4468504	0	9.05511811	0.22210958
GW	12	3	-6.4468504	0	9.05511811	-9.6686352	0	9.05511811	0.27763451
GW	13	3	0	0	9.05511811	-1.6114403	-2.7910958	9.05511811	0.11105315
GW	14	3	-1.61144	-2.791096	9.055118	-3.222877	-5.580709	9.055118	0.2221096
GW	15	3	-3.222877	-5.580709	9.055118	-4.835958	-8.372703	9.055118	0.2776345
GW	16	3	0	0	9.05511811	1.61144029	-2.7910958	9.05511811	0.11105315
GW	17	3	1.6114403	-2.791096	9.055118	3.2228773	-5.580709	9.055118	0.2221096
GW	18	3	3.2228773	-5.580709	9.055118	4.835958	-8.372703	9.055118	0.2776345
GW	19	3	3.2228773	0	9.05511811	1.61144029	2.7910958	9.05511811	0.11105315
GW	20	3	1.6114403	2.7910958	9.055118	-1.61144	2.7910958	9.055118	0.1110531
GW	21	3	-1.6114403	2.7910958	9.05511811	-3.2228773	0	9.05511811	0.11105315
GW	22	3	-3.2228773	0	9.05511811	-1.6114403	-2.7910958	9.05511811	0.11105315
GW	23	3	-1.61144	-2.791096	9.055118	1.6114403	-2.791096	9.055118	0.1110531
GW	24	3	1.61144029	-2.7910958	9.05511811	3.2228773	0	9.05511811	0.11105315
GW	25	7	6.44685039	0	9.05511811	3.2228773	5.58070866	9.05511811	0.22210958
GW	26	7	3.2228773	5.5807087	9.055118	-3.222877	5.5807087	9.055118	0.2221096
GW	27	7	-3.2228773	5.58070866	9.05511811	-6.4468504	0	9.05511811	0.22210958
GW	28	7	-6.4468504	0	9.05511811	-3.2228773	-5.5807087	9.05511811	0.22210958
GW	29	7	-3.222877	-5.580709	9.055118	3.2228773	-5.580709	9.055118	0.2221096
GW	30	7	3.2228773	-5.5807087	9.05511811	6.44685039	0	9.05511811	0.22210958
GW	31	10	9.6686352	0	9.05511801	4.83595801	8.37270341	9.05511801	0.2776345
GW	32	10	4.835958	8.3727034	9.055118	-4.835958	8.3727034	9.055118	0.2776345
GW	33	10	-4.835958	8.37270341	9.05511811	-9.6686352	0	9.05511811	0.27763451
GW	34	10	-9.6686352	0	9.05511811	-4.835958	-8.3727034	9.05511811	0.27763451
GW	35	10	-4.835958	-8.372703	9.055118	4.835958	-8.372703	9.055118	0.2776345
GW	36	10	4.83595801	-8.372703	9.05511801	9.6686352	0	9.05511801	0.2776345
GW	37	11	0	0	9.05511811	0	0	20	0.4
GS	0	0	0.3048		' All in ft.
GE	0
EK
EX	0	13	2	0	1	0
GN	1
FR	0	1	0	0	20	0
