CE
GW	1	11	0	0	0	0	0	10	3.28333e-3
GW	2	11	0	5	0	5	5	0	3.28333e-3
GW	3	11	5	5	0	5	0	0	3.28333e-3
GW	4	11	5	0	0	5	-5	0	3.28333e-3
GW	5	11	5	-5	0	0	-5	0	3.28333e-3
GW	6	1	0	-5	0	-5	-5	0	3.28333e-3
GW	7	11	-5	-5	0	-5	-0.5	0	3.28333e-3
GW	8	11	-5	-0.5	0	-5	5	0	3.28333e-3
GW	9	1	-5	5	0	0	5	0	3.28333e-3
GS	0	0	0.3048		' All in ft.
GE	0
EX	0	1	6	0	1	0
GN	-1
FR	0	1	0	0	21.2	0
