CM Start angle A1 = 0
CM Stop angle A2 = 360
CM Radial sections = 6
CM Circular sections = 3
CM Rotate X, Y, Z = 0, 0, 0
CM Move X, Y, Z = 0, 0, 0
CE
GW     1    3       .0       .0     18.0  .982333       .0     18.0  .033849
GW     2    3  .982333       .0     18.0    1.965       .0     18.0  .067699
GW     3    3    1.965       .0     18.0    2.947       .0     18.0  .084623
GW     4    3       .0       .0     18.0  .491167  .850726     18.0  .033849
GW     5    3  .491167  .850726     18.0  .982333    1.701     18.0  .067699
GW     6    3  .982333    1.701     18.0    1.474    2.552     18.0  .084623
GW     7    3       .0       .0     18.0 -.491167  .850726     18.0  .033849
GW     8    3 -.491167  .850726     18.0 -.982333    1.701     18.0  .067699
GW     9    3 -.982333    1.701     18.0   -1.474    2.552     18.0  .084623
GW    10    3       .0       .0     18.0 -.982333       .0     18.0  .033849
GW    11    3 -.982333       .0     18.0   -1.965       .0     18.0  .067699
GW    12    3   -1.965       .0     18.0   -2.947       .0     18.0  .084623
GW    13    3       .0       .0     18.0 -.491167 -.850726     18.0  .033849
GW    14    3 -.491167 -.850726     18.0 -.982333   -1.701     18.0  .067699
GW    15    3 -.982333   -1.701     18.0   -1.474   -2.552     18.0  .084623
GW    16    3       .0       .0     18.0  .491167 -.850726     18.0  .033849
GW    17    3  .491167 -.850726     18.0  .982333   -1.701     18.0  .067699
GW    18    3  .982333   -1.701     18.0    1.474   -2.552     18.0  .084623
GW    19    3  .982333       .0     18.0  .491167  .850726     18.0  .033849
GW    20    3  .491167  .850726     18.0 -.491167  .850726     18.0  .033849
GW    21    3 -.491167  .850726     18.0 -.982333       .0     18.0  .033849
GW    22    3 -.982333       .0     18.0 -.491167 -.850726     18.0  .033849
GW    23    3 -.491167 -.850726     18.0  .491167 -.850726     18.0  .033849
GW    24    3  .491167 -.850726     18.0  .982333       .0     18.0  .033849
GW    25    7    1.965       .0     18.0  .982333    1.701     18.0  .067699
GW    26    7  .982333    1.701     18.0 -.982333    1.701     18.0  .067699
GW    27    7 -.982333    1.701     18.0   -1.965       .0     18.0  .067699
GW    28    7   -1.965       .0     18.0 -.982333   -1.701     18.0  .067699
GW    29    7 -.982333   -1.701     18.0  .982333   -1.701     18.0  .067699
GW    30    7  .982333   -1.701     18.0    1.965       .0     18.0  .067699
GW    31   10    2.947       .0     18.0    1.474    2.552     18.0  .084623
GW    32   10    1.474    2.552     18.0   -1.474    2.552     18.0  .084623
GW    33   10   -1.474    2.552     18.0   -2.947       .0     18.0  .084623
GW    34   10   -2.947       .0     18.0   -1.474   -2.552     18.0  .084623
GW    35   10   -1.474   -2.552     18.0    1.474   -2.552     18.0  .084623
GW    36   10    1.474   -2.552     18.0    2.947       .0     18.0  .084623
GE 0
FR 0 0 0 0 20
