CM Length L in mtr. = 18.738
CM Radius R1 in cm. = 238.55
CM Radius R2 in cm. = 238.55
CM Number of turns = 5
CM Segments per turn = 24
CM Rotate X, Y, Z = 0, 0, 0
CM Move X, Y, Z = 0, 0, 0
CE
GW   100    1       .0       .0     18.0    2.386       .0     18.0     .005
GW   101    1    2.386       .0     18.0    2.304  .617413   18.156     .005
GW   102    1    2.304  .617413   18.156    2.066    1.193   18.312     .005
GW   103    1    2.066    1.193   18.312    1.687    1.687   18.468     .005
GW   104    1    1.687    1.687   18.468    1.193    2.066   18.625     .005
GW   105    1    1.193    2.066   18.625  .617413    2.304   18.781     .005
GW   106    1  .617413    2.304   18.781       .0    2.386   18.937     .005
GW   107    1       .0    2.386   18.937 -.617413    2.304   19.093     .005
GW   108    1 -.617413    2.304   19.093   -1.193    2.066   19.249     .005
GW   109    1   -1.193    2.066   19.249   -1.687    1.687   19.405     .005
GW   110    1   -1.687    1.687   19.405   -2.066    1.193   19.562     .005
GW   111    1   -2.066    1.193   19.562   -2.304  .617413   19.718     .005
GW   112    1   -2.304  .617413   19.718   -2.386       .0   19.874     .005
GW   113    1   -2.386       .0   19.874   -2.304 -.617413    20.03     .005
GW   114    1   -2.304 -.617413    20.03   -2.066   -1.193   20.186     .005
GW   115    1   -2.066   -1.193   20.186   -1.687   -1.687   20.342     .005
GW   116    1   -1.687   -1.687   20.342   -1.193   -2.066   20.498     .005
GW   117    1   -1.193   -2.066   20.498 -.617413   -2.304   20.655     .005
GW   118    1 -.617413   -2.304   20.655       .0   -2.386   20.811     .005
GW   119    1       .0   -2.386   20.811  .617413   -2.304   20.967     .005
GW   120    1  .617413   -2.304   20.967    1.193   -2.066   21.123     .005
GW   121    1    1.193   -2.066   21.123    1.687   -1.687   21.279     .005
GW   122    1    1.687   -1.687   21.279    2.066   -1.193   21.435     .005
GW   123    1    2.066   -1.193   21.435    2.304 -.617413   21.591     .005
GW   124    1    2.304 -.617413   21.591    2.386       .0   21.748     .005
GW   125    1    2.386       .0   21.748    2.304  .617413   21.904     .005
GW   126    1    2.304  .617413   21.904    2.066    1.193    22.06     .005
GW   127    1    2.066    1.193    22.06    1.687    1.687   22.216     .005
GW   128    1    1.687    1.687   22.216    1.193    2.066   22.372     .005
GW   129    1    1.193    2.066   22.372  .617413    2.304   22.528     .005
GW   130    1  .617413    2.304   22.528       .0    2.386   22.685     .005
GW   131    1       .0    2.386   22.685 -.617413    2.304   22.841     .005
GW   132    1 -.617413    2.304   22.841   -1.193    2.066   22.997     .005
GW   133    1   -1.193    2.066   22.997   -1.687    1.687   23.153     .005
GW   134    1   -1.687    1.687   23.153   -2.066    1.193   23.309     .005
GW   135    1   -2.066    1.193   23.309   -2.304  .617413   23.465     .005
GW   136    1   -2.304  .617413   23.465   -2.386       .0   23.621     .005
GW   137    1   -2.386       .0   23.621   -2.304 -.617413   23.778     .005
GW   138    1   -2.304 -.617413   23.778   -2.066   -1.193   23.934     .005
GW   139    1   -2.066   -1.193   23.934   -1.687   -1.687    24.09     .005
GW   140    1   -1.687   -1.687    24.09   -1.193   -2.066   24.246     .005
GW   141    1   -1.193   -2.066   24.246 -.617413   -2.304   24.402     .005
GW   142    1 -.617413   -2.304   24.402       .0   -2.386   24.558     .005
GW   143    1       .0   -2.386   24.558  .617413   -2.304   24.714     .005
GW   144    1  .617413   -2.304   24.714    1.193   -2.066   24.871     .005
GW   145    1    1.193   -2.066   24.871    1.687   -1.687   25.027     .005
GW   146    1    1.687   -1.687   25.027    2.066   -1.193   25.183     .005
GW   147    1    2.066   -1.193   25.183    2.304 -.617413   25.339     .005
GW   148    1    2.304 -.617413   25.339    2.386       .0   25.495     .005
GW   149    1    2.386       .0   25.495    2.304  .617413   25.651     .005
GW   150    1    2.304  .617413   25.651    2.066    1.193   25.808     .005
GW   151    1    2.066    1.193   25.808    1.687    1.687   25.964     .005
GW   152    1    1.687    1.687   25.964    1.193    2.066    26.12     .005
GW   153    1    1.193    2.066    26.12  .617413    2.304   26.276     .005
GW   154    1  .617413    2.304   26.276       .0    2.386   26.432     .005
GW   155    1       .0    2.386   26.432 -.617413    2.304   26.588     .005
GW   156    1 -.617413    2.304   26.588   -1.193    2.066   26.744     .005
GW   157    1   -1.193    2.066   26.744   -1.687    1.687   26.901     .005
GW   158    1   -1.687    1.687   26.901   -2.066    1.193   27.057     .005
GW   159    1   -2.066    1.193   27.057   -2.304  .617413   27.213     .005
GW   160    1   -2.304  .617413   27.213   -2.386       .0   27.369     .005
GW   161    1   -2.386       .0   27.369   -2.304 -.617413   27.525     .005
GW   162    1   -2.304 -.617413   27.525   -2.066   -1.193   27.681     .005
GW   163    1   -2.066   -1.193   27.681   -1.687   -1.687   27.837     .005
GW   164    1   -1.687   -1.687   27.837   -1.193   -2.066   27.994     .005
GW   165    1   -1.193   -2.066   27.994 -.617413   -2.304    28.15     .005
GW   166    1 -.617413   -2.304    28.15       .0   -2.386   28.306     .005
GW   167    1       .0   -2.386   28.306  .617413   -2.304   28.462     .005
GW   168    1  .617413   -2.304   28.462    1.193   -2.066   28.618     .005
GW   169    1    1.193   -2.066   28.618    1.687   -1.687   28.774     .005
GW   170    1    1.687   -1.687   28.774    2.066   -1.193   28.931     .005
GW   171    1    2.066   -1.193   28.931    2.304 -.617413   29.087     .005
GW   172    1    2.304 -.617413   29.087    2.386       .0   29.243     .005
GW   173    1    2.386       .0   29.243    2.304  .617413   29.399     .005
GW   174    1    2.304  .617413   29.399    2.066    1.193   29.555     .005
GW   175    1    2.066    1.193   29.555    1.687    1.687   29.711     .005
GW   176    1    1.687    1.687   29.711    1.193    2.066   29.867     .005
GW   177    1    1.193    2.066   29.867  .617413    2.304   30.024     .005
GW   178    1  .617413    2.304   30.024       .0    2.386    30.18     .005
GW   179    1       .0    2.386    30.18 -.617413    2.304   30.336     .005
GW   180    1 -.617413    2.304   30.336   -1.193    2.066   30.492     .005
GW   181    1   -1.193    2.066   30.492   -1.687    1.687   30.648     .005
GW   182    1   -1.687    1.687   30.648   -2.066    1.193   30.804     .005
GW   183    1   -2.066    1.193   30.804   -2.304  .617413    30.96     .005
GW   184    1   -2.304  .617413    30.96   -2.386       .0   31.117     .005
GW   185    1   -2.386       .0   31.117   -2.304 -.617413   31.273     .005
GW   186    1   -2.304 -.617413   31.273   -2.066   -1.193   31.429     .005
GW   187    1   -2.066   -1.193   31.429   -1.687   -1.687   31.585     .005
GW   188    1   -1.687   -1.687   31.585   -1.193   -2.066   31.741     .005
GW   189    1   -1.193   -2.066   31.741 -.617413   -2.304   31.897     .005
GW   190    1 -.617413   -2.304   31.897       .0   -2.386   32.054     .005
GW   191    1       .0   -2.386   32.054  .617413   -2.304    32.21     .005
GW   192    1  .617413   -2.304    32.21    1.193   -2.066   32.366     .005
GW   193    1    1.193   -2.066   32.366    1.687   -1.687   32.522     .005
GW   194    1    1.687   -1.687   32.522    2.066   -1.193   32.678     .005
GW   195    1    2.066   -1.193   32.678    2.304 -.617413   32.834     .005
GW   196    1    2.304 -.617413   32.834    2.386       .0    32.99     .005
GW   197    1    2.386       .0    32.99    2.304  .617413   33.147     .005
GW   198    1    2.304  .617413   33.147    2.066    1.193   33.303     .005
GW   199    1    2.066    1.193   33.303    1.687    1.687   33.459     .005
GW   200    1    1.687    1.687   33.459    1.193    2.066   33.615     .005
GW   201    1    1.193    2.066   33.615  .617413    2.304   33.771     .005
GW   202    1  .617413    2.304   33.771       .0    2.386   33.927     .005
GW   203    1       .0    2.386   33.927 -.617413    2.304   34.083     .005
GW   204    1 -.617413    2.304   34.083   -1.193    2.066    34.24     .005
GW   205    1   -1.193    2.066    34.24   -1.687    1.687   34.396     .005
GW   206    1   -1.687    1.687   34.396   -2.066    1.193   34.552     .005
GW   207    1   -2.066    1.193   34.552   -2.304  .617413   34.708     .005
GW   208    1   -2.304  .617413   34.708   -2.386       .0   34.864     .005
GW   209    1   -2.386       .0   34.864   -2.304 -.617413    35.02     .005
GW   210    1   -2.304 -.617413    35.02   -2.066   -1.193   35.177     .005
GW   211    1   -2.066   -1.193   35.177   -1.687   -1.687   35.333     .005
GW   212    1   -1.687   -1.687   35.333   -1.193   -2.066   35.489     .005
GW   213    1   -1.193   -2.066   35.489 -.617413   -2.304   35.645     .005
GW   214    1 -.617413   -2.304   35.645       .0   -2.386   35.801     .005
GW   215    1       .0   -2.386   35.801  .617413   -2.304   35.957     .005
GW   216    1  .617413   -2.304   35.957    1.193   -2.066   36.113     .005
GW   217    1    1.193   -2.066   36.113    1.687   -1.687    36.27     .005
GW   218    1    1.687   -1.687    36.27    2.066   -1.193   36.426     .005
GW   219    1    2.066   -1.193   36.426    2.304 -.617413   36.582     .005
GW   220    1    2.304 -.617413   36.582    2.386       .0   36.738     .005
GW   221    1    2.386       .0   36.738       .0       .0   36.738     .005
GE 0
